# created with PyMOL 2.5.0
@<TRIPOS>MOLECULE
XRAY
30 32 1                 
SMALL
USER_CHARGES
@<TRIPOS>ATOM
1	 CAC	28.584	2.064	16.181	C.2	1	XRAY	0.000	
2	 CAD	29.347	3.045	15.549	C.2	1	XRAY	0.000	
3	 CAE	27.717	7.216	13.150	C.2	1	XRAY	0.000	
4	 CAF	27.635	2.419	17.136	C.2	1	XRAY	0.000	
5	 CAG	26.780	6.447	12.446	C.2	1	XRAY	0.000	
6	 CAH	27.678	7.250	14.549	C.2	1	XRAY	0.000	
7	 CAI	29.123	4.366	15.931	C.2	1	XRAY	0.000	
8	 CAJ	25.754	5.800	14.543	C.2	1	XRAY	0.000	
9	 CAK	25.878	6.547	18.932	C.3	1	XRAY	0.000	
10	 CAN	25.590	6.718	17.416	C.2	1	XRAY	0.000	
11	 CAO	25.795	5.749	13.146	C.2	1	XRAY	0.000	
12	 CAP	26.665	6.577	15.251	C.2	1	XRAY	0.000	
13	 CAQ	28.162	4.671	16.881	C.2	1	XRAY	0.000	
14	 CAR	27.937	6.150	17.231	C.3	1	XRAY	0.000	
15	 NAL	27.432	3.683	17.461	N.2	1	XRAY	0.000	
16	 NAS	26.657	6.575	16.595	N.pl3	1	XRAY	0.000	
17	 OAA	24.456	7.016	17.035	O.2	1	XRAY	0.000	
18	 SAM	27.705	6.477	19.016	S.3	1	XRAY	0.000	
19	  CL	24.623	4.795	12.298	Cl	1	XRAY	0.000	
20	 H01	28.473	7.786	12.610	 H	1	XRAY	0.000	
21	 H02	26.821	6.395	11.358	 H	1	XRAY	0.000	
22	 H03	28.440	7.803	15.098	 H	1	XRAY	0.000	
23	 H04	25.001	5.225	15.082	 H	1	XRAY	0.000	
24	 H05	29.709	5.166	15.479	 H	1	XRAY	0.000	
25	 H06	30.086	2.790	14.790	 H	1	XRAY	0.000	
26	 H07	28.731	1.014	15.926	 H	1	XRAY	0.000	
27	 H08	27.049	1.640	17.624	 H	1	XRAY	0.000	
28	 H09	25.456	7.350	19.537	 H	1	XRAY	0.000	
29	 H10	25.434	5.627	19.312	 H	1	XRAY	0.000	
30	 H11	28.827	6.679	16.890	 H	1	XRAY	0.000	
@<TRIPOS>BOND
1 1 4 2
2 1 26 1
3 1 2 1
4 2 25 1
5 3 6 2
6 3 20 1
7 4 15 1
8 4 27 1
9 3 5 1
10 5 21 1
11 6 12 1
12 6 22 1
13 2 7 2
14 7 24 1
15 8 11 1
16 8 12 2
17 8 23 1
18 9 18 1
19 9 28 1
20 9 29 1
21 9 10 1
22 10 17 2
23 5 11 2
24 11 19 1
25 12 16 1
26 7 13 1
27 13 15 2
28 13 14 1
29 14 30 1
30 10 16 1
31 14 16 1
32 14 18 1
@<TRIPOS>SUBSTRUCTURE
1	XRAY	1	GROUP	1 N	N8N
