# created with PyMOL 2.5.0
@<TRIPOS>MOLECULE
5PE
38 40 1                 
SMALL
USER_CHARGES
@<TRIPOS>ATOM
1	 CAA	30.989	7.952	15.451	C.3	1	5PE5P	0.000	
2	 CAD	26.902	8.823	17.892	C.2	1	5PE5P	0.000	
3	 CAE	27.598	7.686	18.279	C.2	1	5PE5P	0.000	
4	 CAF	25.921	8.678	16.908	C.2	1	5PE5P	0.000	
5	 CAG	27.331	6.442	17.668	C.2	1	5PE5P	0.000	
6	 CAH	27.516	7.303	12.009	C.2	1	5PE5P	0.000	
7	 CAI	27.188	6.032	12.534	C.2	1	5PE5P	0.000	
8	 CAJ	28.978	6.312	14.174	C.2	1	5PE5P	0.000	
9	 CAK	28.547	2.157	15.822	C.3	1	5PE5P	0.000	
10	 CAL	25.978	5.078	16.014	C.3	1	5PE5P	0.000	
11	 CAP	27.471	3.151	16.386	C.2	1	5PE5P	0.000	
12	 CAQ	26.331	6.380	16.706	C.2	1	5PE5P	0.000	
13	 CAR	28.588	8.058	12.567	C.2	1	5PE5P	0.000	
14	 CAS	27.922	5.533	13.620	C.2	1	5PE5P	0.000	
15	 CAT	29.316	7.579	13.661	C.2	1	5PE5P	0.000	
16	 CAU	27.560	4.140	14.213	C.3	1	5PE5P	0.000	
17	 NAM	25.670	7.500	16.336	N.2	1	5PE5P	0.000	
18	 NAV	27.099	4.232	15.628	N.pl3	1	5PE5P	0.000	
19	 OAB	27.063	3.000	17.525	O.2	1	5PE5P	0.000	
20	 OAC	28.901	9.310	12.093	O.3	1	5PE5P	0.000	
21	 OAN	30.355	8.368	14.185	O.3	1	5PE5P	0.000	
22	 SAO	29.000	2.998	14.302	S.3	1	5PE5P	0.000	
23	 H01	27.113	9.794	18.340	 H	1	5PE5P	0.000	
24	 H02	27.896	5.552	17.944	 H	1	5PE5P	0.000	
25	 H03	25.346	9.551	16.600	 H	1	5PE5P	0.000	
26	 H04	28.356	7.754	19.060	 H	1	5PE5P	0.000	
27	 H05	26.376	5.448	12.101	 H	1	5PE5P	0.000	
28	 H06	26.946	7.708	11.173	 H	1	5PE5P	0.000	
29	 H07	29.541	5.916	15.019	 H	1	5PE5P	0.000	
30	 H08	31.888	8.545	15.619	 H	1	5PE5P	0.000	
31	 H09	30.293	8.108	16.275	 H	1	5PE5P	0.000	
32	 H10	31.256	6.897	15.395	 H	1	5PE5P	0.000	
33	 H11	28.196	1.134	15.689	 H	1	5PE5P	0.000	
34	 H12	29.397	2.057	16.497	 H	1	5PE5P	0.000	
35	 H13	25.494	5.365	15.081	 H	1	5PE5P	0.000	
36	 H14	25.343	4.503	16.688	 H	1	5PE5P	0.000	
37	 H15	26.787	3.772	13.538	 H	1	5PE5P	0.000	
38	 H16	28.900	9.937	12.820	 H	1	5PE5P	0.000	
@<TRIPOS>BOND
1 1 21 1
2 1 30 1
3 1 31 1
4 1 32 1
5 2 4 1
6 2 23 1
7 2 3 2
8 3 26 1
9 4 17 2
10 4 25 1
11 3 5 1
12 5 24 1
13 6 7 2
14 6 28 1
15 7 14 1
16 7 27 1
17 8 14 2
18 8 29 1
19 9 11 1
20 9 33 1
21 9 34 1
22 10 12 1
23 10 35 1
24 10 36 1
25 11 18 1
26 11 19 2
27 5 12 2
28 12 17 1
29 6 13 1
30 13 20 1
31 14 16 1
32 8 15 1
33 13 15 2
34 16 18 1
35 16 22 1
36 16 37 1
37 10 18 1
38 20 38 1
39 15 21 1
40 9 22 1
@<TRIPOS>SUBSTRUCTURE
1	5PE5P	1	GROUP	1 ****	5PE
