# created with PyMOL 2.5.0
@<TRIPOS>MOLECULE
N8N
38 40 1                 
SMALL
USER_CHARGES
@<TRIPOS>ATOM
1	 CAC	28.584	2.064	16.181	C.2	1	N8N8N	0.000	
2	 CAD	29.347	3.045	15.549	C.2	1	N8N8N	0.000	
3	 CAE	27.717	7.216	13.150	C.2	1	N8N8N	0.000	
4	 CAF	27.635	2.419	17.136	C.2	1	N8N8N	0.000	
5	 CAG	26.780	6.447	12.446	C.2	1	N8N8N	0.000	
6	 CAI	29.123	4.366	15.931	C.2	1	N8N8N	0.000	
7	 CAJ	25.754	5.800	14.543	C.2	1	N8N8N	0.000	
8	 CAK	25.878	6.547	18.932	C.3	1	N8N8N	0.000	
9	 CAN	25.590	6.718	17.416	C.2	1	N8N8N	0.000	
10	 CAO	25.795	5.749	13.146	C.2	1	N8N8N	0.000	
11	 CAP	26.665	6.577	15.251	C.2	1	N8N8N	0.000	
12	 CAQ	28.162	4.671	16.881	C.2	1	N8N8N	0.000	
13	 CAR	27.937	6.150	17.231	C.3	1	N8N8N	0.000	
14	 NAS	26.657	6.575	16.595	N.pl3	1	N8N8N	0.000	
15	 OAA	24.456	7.016	17.035	O.2	1	N8N8N	0.000	
16	 SAM	27.705	6.477	19.016	S.3	1	N8N8N	0.000	
17	 C02	30.549	3.844	13.713	C.3	1	N8N8N	0.000	
18	 C03	26.559	6.826	15.150	C.3	1	N8N8N	0.000	
19	 C01	27.223	3.777	17.667	C.2	1	N8N8N	0.000	
20	 H06	25.761	7.108	14.463	 H	1	N8N8N	0.000	
21	 H07	28.745	0.581	14.893	 H	1	N8N8N	0.000	
22	 H12	26.466	4.038	18.406	 H	1	N8N8N	0.000	
23	 H13	27.218	7.551	14.673	 H	1	N8N8N	0.000	
24	 H17	25.055	5.162	12.602	 H	1	N8N8N	0.000	
25	 N01	27.750	7.302	14.604	N.2	1	N8N8N	0.000	
26	 O01	28.777	0.687	15.847	O.3	1	N8N8N	0.000	
27	 O02	30.317	2.710	14.553	O.3	1	N8N8N	0.000	
28	 H01	28.473	7.786	12.610	 H	1	N8N8N	0.000	
29	 H02	26.821	6.395	11.358	 H	1	N8N8N	0.000	
30	 H14	30.957	4.626	14.283	 H	1	N8N8N	0.000	
31	 H15	29.641	4.157	13.287	 H	1	N8N8N	0.000	
32	 H04	25.001	5.225	15.082	 H	1	N8N8N	0.000	
33	 H16	31.220	3.581	12.949	 H	1	N8N8N	0.000	
34	 H05	29.709	5.166	15.479	 H	1	N8N8N	0.000	
35	 H08	27.049	1.640	17.624	 H	1	N8N8N	0.000	
36	 H09	25.456	7.350	19.537	 H	1	N8N8N	0.000	
37	 H10	25.434	5.627	19.312	 H	1	N8N8N	0.000	
38	 H11	28.827	6.679	16.890	 H	1	N8N8N	0.000	
@<TRIPOS>BOND
1 1 2 1
2 1 4 2
3 1 26 1
4 2 6 2
5 2 27 1
6 3 5 1
7 3 25 2
8 3 28 1
9 4 19 1
10 4 35 1
11 5 10 2
12 5 29 1
13 6 12 1
14 6 34 1
15 7 10 1
16 7 11 2
17 7 32 1
18 8 9 1
19 8 16 1
20 8 36 1
21 8 37 1
22 9 14 1
23 9 15 2
24 10 24 1
25 11 18 1
26 12 13 1
27 12 19 2
28 13 14 1
29 13 16 1
30 13 38 1
31 14 18 1
32 17 30 1
33 17 31 1
34 17 33 1
35 18 20 1
36 18 23 1
37 19 22 1
38 11 25 1
39 21 26 1
40 17 27 1
@<TRIPOS>SUBSTRUCTURE
1	N8N8N	1	GROUP	1 N	N8N
