# created with PyMOL 2.5.0
@<TRIPOS>MOLECULE
DLR
37 40 1                 
SMALL
USER_CHARGES
@<TRIPOS>ATOM
1	 CAB	26.940	8.453	17.604	C.2	1	DLR1	0.000	
2	 CAC	26.027	8.337	16.543	C.2	1	DLR1	0.000	
3	 CAD	27.470	7.292	18.209	C.2	1	DLR1	0.000	
4	 CAE	25.641	7.079	16.097	C.2	1	DLR1	0.000	
5	 CAF	27.080	6.014	17.782	C.2	1	DLR1	0.000	
6	 CAG	29.015	5.917	15.092	C.2	1	DLR1	0.000	
7	 CAH	29.612	7.154	14.763	C.2	1	DLR1	0.000	
8	 CAI	28.565	7.906	11.482	C.2	1	DLR1	0.000	
9	 CAJ	27.938	5.875	12.872	C.2	1	DLR1	0.000	
10	 CAK	28.498	1.882	16.007	C.3	1	DLR1	0.000	
11	 CAL	25.755	4.567	16.218	C.3	1	DLR1	0.000	
12	 CAP	27.413	2.799	16.568	C.2	1	DLR1	0.000	
13	 CAQ	26.171	5.935	16.724	C.2	1	DLR1	0.000	
14	 CAR	28.161	5.289	14.150	C.2	1	DLR1	0.000	
15	 CAS	28.564	7.098	12.569	C.2	1	DLR1	0.000	
16	 CAT	29.387	7.732	13.486	C.2	1	DLR1	0.000	
17	 CAU	27.520	3.912	14.438	C.3	1	DLR1	0.000	
18	 NAM	29.340	8.977	11.727	N.2	1	DLR1	0.000	
19	 NAN	29.813	8.882	12.876	N.pl3	1	DLR1	0.000	
20	 NAV	26.916	3.769	15.790	N.pl3	1	DLR1	0.000	
21	 OAA	26.904	2.614	17.654	O.2	1	DLR1	0.000	
22	 SAO	28.888	2.670	14.419	S.3	1	DLR1	0.000	
23	 H01	25.622	9.232	16.071	 H	1	DLR1	0.000	
24	 H02	28.192	7.390	19.019	 H	1	DLR1	0.000	
25	 H03	27.472	5.115	18.258	 H	1	DLR1	0.000	
26	 H04	27.239	9.439	17.960	 H	1	DLR1	0.000	
27	 H05	24.936	6.979	15.272	 H	1	DLR1	0.000	
28	 H06	27.294	5.385	12.142	 H	1	DLR1	0.000	
29	 H07	30.245	7.664	15.489	 H	1	DLR1	0.000	
30	 H08	29.208	5.451	16.058	 H	1	DLR1	0.000	
31	 H09	28.023	7.718	10.555	 H	1	DLR1	0.000	
32	 H10	30.428	9.562	13.300	 H	1	DLR1	0.000	
33	 H11	28.184	0.842	15.913	 H	1	DLR1	0.000	
34	 H12	29.370	1.856	16.660	 H	1	DLR1	0.000	
35	 H13	25.103	4.707	15.356	 H	1	DLR1	0.000	
36	 H14	25.236	4.037	17.017	 H	1	DLR1	0.000	
37	 H15	26.736	3.784	13.692	 H	1	DLR1	0.000	
@<TRIPOS>BOND
1 1 3 1
2 1 26 1
3 1 2 2
4 2 23 1
5 3 5 2
6 3 24 1
7 2 4 1
8 4 27 1
9 5 25 1
10 6 14 1
11 6 30 1
12 6 7 2
13 7 29 1
14 8 18 2
15 8 31 1
16 9 14 2
17 9 15 1
18 9 28 1
19 10 12 1
20 10 33 1
21 10 34 1
22 11 13 1
23 11 35 1
24 11 36 1
25 12 20 1
26 12 21 2
27 4 13 2
28 5 13 1
29 14 17 1
30 8 15 1
31 15 16 2
32 7 16 1
33 17 20 1
34 17 22 1
35 17 37 1
36 18 19 1
37 16 19 1
38 19 32 1
39 11 20 1
40 10 22 1
@<TRIPOS>SUBSTRUCTURE
1	DLR1	1	GROUP	1 ****	DLR
