# created with PyMOL 2.5.2
@<TRIPOS>MOLECULE
DLR
30 32 1                 
SMALL
USER_CHARGES
@<TRIPOS>ATOM
1	 CAH	29.612	7.154	14.763	C.2	1	DLR1	0.000	
2	 CAJ	27.938	5.875	12.872	C.2	1	DLR1	0.000	
3	 CAK	28.498	1.882	16.007	C.3	1	DLR1	0.000	
4	 CAP	27.413	2.799	16.568	C.2	1	DLR1	0.000	
5	 CAR	28.161	5.289	14.150	C.2	1	DLR1	0.000	
6	 CAS	28.564	7.098	12.569	C.2	1	DLR1	0.000	
7	 CAT	29.387	7.732	13.486	C.2	1	DLR1	0.000	
8	 CAU	27.520	3.912	14.438	C.3	1	DLR1	0.000	
9	 NAV	26.916	3.769	15.790	N.pl3	1	DLR1	0.000	
10	 OAA	26.904	2.614	17.654	O.2	1	DLR1	0.000	
11	 SAO	28.888	2.670	14.419	S.3	1	DLR1	0.000	
12	 C01	25.963	4.540	16.192	C.2	1	DLR1	0.000	
13	 C02	26.263	5.780	16.780	C.2	1	DLR1	0.000	
14	 C03	25.225	6.618	17.218	C.2	1	DLR1	0.000	
15	 C04	23.887	6.218	17.068	C.2	1	DLR1	0.000	
16	 C05	23.587	4.978	16.480	C.2	1	DLR1	0.000	
17	 C06	24.625	4.139	16.042	C.2	1	DLR1	0.000	
18	 Cl1	25.603	8.181	17.958	Cl	1	DLR1	0.000	
19	 H17	29.863	8.677	13.226	 H	1	DLR1	0.000	
20	 H21	28.398	7.556	11.594	 H	1	DLR1	0.000	
21	 N01	29.028	5.878	15.166	N.2	1	DLR1	0.000	
22	 H06	27.294	5.385	12.142	 H	1	DLR1	0.000	
23	 H07	30.245	7.664	15.489	 H	1	DLR1	0.000	
24	 H08	27.314	6.094	16.898	 H	1	DLR1	0.000	
25	 H10	23.072	6.877	17.412	 H	1	DLR1	0.000	
26	 H03	22.536	4.663	16.362	 H	1	DLR1	0.000	
27	 H11	28.184	0.842	15.913	 H	1	DLR1	0.000	
28	 H04	24.389	3.165	15.580	 H	1	DLR1	0.000	
29	 H12	29.370	1.856	16.660	 H	1	DLR1	0.000	
30	 H15	26.736	3.784	13.692	 H	1	DLR1	0.000	
@<TRIPOS>BOND
1 1 7 1
2 1 23 1
3 2 5 2
4 2 6 1
5 2 22 1
6 3 4 1
7 3 11 1
8 3 27 1
9 3 29 1
10 4 9 1
11 4 10 2
12 5 8 1
13 6 7 2
14 6 20 1
15 7 19 1
16 8 9 1
17 8 11 1
18 8 30 1
19 9 12 1
20 12 13 2
21 12 17 1
22 13 14 1
23 13 24 1
24 14 15 2
25 14 18 1
26 15 16 1
27 15 25 1
28 16 17 2
29 16 26 1
30 17 28 1
31 1 21 2
32 5 21 1
@<TRIPOS>SUBSTRUCTURE
1	DLR1	1	GROUP	1 ****	DLR
