# created with PyMOL 2.5.2
@<TRIPOS>MOLECULE
N8N
37 40 1                 
SMALL
USER_CHARGES
@<TRIPOS>ATOM
1	 CAC	28.584	2.064	16.181	C.2	1	N8N8N	0.000	
2	 CAD	29.347	3.045	15.549	C.2	1	N8N8N	0.000	
3	 CAE	27.717	7.216	13.150	C.2	1	N8N8N	0.000	
4	 CAF	27.635	2.419	17.136	C.2	1	N8N8N	0.000	
5	 CAG	26.780	6.447	12.446	C.2	1	N8N8N	0.000	
6	 CAH	27.678	7.250	14.549	C.2	1	N8N8N	0.000	
7	 CAI	29.123	4.366	15.931	C.2	1	N8N8N	0.000	
8	 CAJ	25.754	5.800	14.543	C.2	1	N8N8N	0.000	
9	 CAK	25.878	6.547	18.932	C.3	1	N8N8N	0.000	
10	 CAN	25.590	6.718	17.416	C.2	1	N8N8N	0.000	
11	 CAO	25.795	5.749	13.146	C.2	1	N8N8N	0.000	
12	 CAP	26.665	6.577	15.251	C.2	1	N8N8N	0.000	
13	 CAQ	28.162	4.671	16.881	C.2	1	N8N8N	0.000	
14	 CAR	27.937	6.150	17.231	C.3	1	N8N8N	0.000	
15	 NAS	26.657	6.575	16.595	N.pl3	1	N8N8N	0.000	
16	 OAA	24.456	7.016	17.035	O.2	1	N8N8N	0.000	
17	 SAM	27.705	6.477	19.016	S.3	1	N8N8N	0.000	
18	 C01	26.559	6.826	15.150	C.3	1	N8N8N	0.000	
19	 C04	28.792	0.581	15.821	C.2	1	N8N8N	0.000	
20	 C02	27.223	3.777	17.667	C.2	1	N8N8N	0.000	
21	 H07	26.270	1.303	18.622	 H	1	N8N8N	0.000	
22	 H08	29.730	0.142	15.482	 H	1	N8N8N	0.000	
23	 H12	26.911	7.602	14.471	 H	1	N8N8N	0.000	
24	 H13	25.584	6.849	14.662	 H	1	N8N8N	0.000	
25	 H14	25.055	5.162	12.602	 H	1	N8N8N	0.000	
26	 H15	26.466	4.038	18.406	 H	1	N8N8N	0.000	
27	 N01	26.845	1.369	17.794	N.pl3	1	N8N8N	0.000	
28	 N02	27.530	-0.150	16.006	N.2	1	N8N8N	0.000	
29	 H01	28.473	7.786	12.610	 H	1	N8N8N	0.000	
30	 H02	26.821	6.395	11.358	 H	1	N8N8N	0.000	
31	 H03	28.440	7.803	15.098	 H	1	N8N8N	0.000	
32	 H04	25.001	5.225	15.082	 H	1	N8N8N	0.000	
33	 H05	29.709	5.166	15.479	 H	1	N8N8N	0.000	
34	 H06	30.086	2.790	14.790	 H	1	N8N8N	0.000	
35	 H09	25.456	7.350	19.537	 H	1	N8N8N	0.000	
36	 H10	25.434	5.627	19.312	 H	1	N8N8N	0.000	
37	 H11	28.827	6.679	16.890	 H	1	N8N8N	0.000	
@<TRIPOS>BOND
1 1 2 1
2 1 4 2
3 1 19 1
4 2 7 2
5 2 34 1
6 3 5 1
7 3 6 2
8 3 29 1
9 4 20 1
10 4 27 1
11 5 11 2
12 5 30 1
13 6 12 1
14 6 31 1
15 7 13 1
16 7 33 1
17 8 11 1
18 8 12 2
19 8 32 1
20 9 10 1
21 9 17 1
22 9 35 1
23 9 36 1
24 10 15 1
25 10 16 2
26 11 25 1
27 13 14 1
28 13 20 2
29 14 15 1
30 14 17 1
31 14 37 1
32 15 18 1
33 12 18 1
34 18 23 1
35 18 24 1
36 19 22 1
37 19 28 2
38 20 26 1
39 21 27 1
40 27 28 1
@<TRIPOS>SUBSTRUCTURE
1	N8N8N	1	GROUP	1 N	N8N
